*HEADING
SimFEA Studio CalculiX adapter smoke case (N, mm, MPa)
*NODE
1, 0., 0., 0.
2, 1000., 0., 0.
*ELEMENT, TYPE=B31, ELSET=beam
1, 1, 2
*MATERIAL, NAME=steel
*ELASTIC
210000., 0.3
*BEAM SECTION, ELSET=beam, MATERIAL=steel, SECTION=RECT
20., 20.
0., 0., 1.
*BOUNDARY
1, 1, 6
*STEP
*STATIC
*CLOAD
2, 2, -100.
*NODE FILE
U
*EL FILE, ELSET=beam
S
*END STEP
